/*--------------------------------*- C++ -*----------------------------------*\
  =========                 |
  \\      /  F ield         | OpenFOAM: The Open Source CFD Toolbox
   \\    /   O peration     | Website:  https://openfoam.com
    \\  /    A nd           | Version:  v2312
     \\/     M anipulation  |
\*---------------------------------------------------------------------------*/
FoamFile
{
    format      ascii;
    class       dictionary;
    object      blockMeshDict;
}
// * * * * * * * * * * * * * * * * * * * * * * * * * * * * * * * * * * * * * //

/*
Updated October 2025 to include all BLs within blockMesh,
by using 4 extra blocks for the blade BLs to make an OH
mesh topology.

Passage-centered, which is more natural for aperiodic
passages.
Updates by Jeff Defoe

Background block vertices adjusted to match geometry,
work by Tony Woo and Jeff Defoe.

Full integration of updated background blocks with existing
code structure, August-September 2025 by Jeff Defoe.

Grading: details computed via Python code.

Note: a critical assumption made is that the Z direction is
the axial direction, with the net flow in the +Z direction.

 3 November 2025: working except for grading on offsets needs fixing.
 6 November 2025: issue with periodics matching when all projection/grading
			 	 included.
11 November 2025: started working on converting mesh generation to be in
				  cylindrical coordinates
12 November 2025: addition of extra geometry so almost all block faces have
				  dedicated STLs.
14 November 2025: abandoned mesh generation in cylindrical coordinates due
			 	  to grading issues that resulted.
18 November 2025: still have some quasi-random surfaces/edges disabled, but
				  grid is finally working with no errors, non-ortho < 80,
				  and successfully makes periodic matches.
*/

// ------------ START INPUT BLOCK -------------------- //

// Inputs for geometry and overall mesh resolution

// for example, if input STLs and passageGeometry and vertices
// files are in mm, then scale=0.001
scale 0.001;

// Inputs related to grid resolution
	// radial (outside BLs)
nrad 40;
	// tangential (outside BLs)
ntan 102;
	// upstream
nax1 45;
	// first half of between blades
nax2 27;
	// second half of between blades
nax3 29;
	// downstream
nax4 46;
	// hub BL
nBLcellsHub 14;
	// casing BL
nBLcellsCas 14;
	// blade BL
nBLcellsBlade 16;

// geometry parameters for BL computations (in input length units)

// radial spans at each block face
// (estimated arclengths of block edges)
spanI 97.48080011863154;
spanL 97.97874475916156;
spanK $spanL;
spanM 99.69027088862387;
spanP $spanM;
spanT 102.2826779319704;
spanU $spanT;
spanO 84.24827727121045;

// BL parameters
	// These are just the BL thickness for the hub
	// and casing (in input units).
delHub 4.0156511521668286;
delCas 4.0156511521668286;

// radial grading inputs
	// grading ratio for "inner" radial segments.
	// This is the factor by which the cell size
	// at midspan is larger than the cell size
	// adjacent to the endwall BLs, e.g. if
	// this number is 2, the cells at the midpoint
	// of the span will be twice as large as the
	// cells just outside the hub and casing BLs.
gRad 2;

// tangential grading inputs
	// grading ratio for "inner" tangential segments.
	// This is the factor by which the cell size
	// at midpassage is larger than the cell size
	// adjacent to the blade BLs, e.g. if
	// this number is 2, the cells at the midpoint
	// of the passage  will be twice as large as the
	// cells just outside the blade BLs.
gTan 2;
gTanIhub 1.0;
gTanOhub 1.0;
gTanIcas 1.0;
gTanOcas 1.0;

// BL grading inputs
	// for hub, casing, and blade
gBLhub 201.824229467;
gBLcas 201.824229467;
gBLbla 31.496562344;

// axial grading inputs
	// Axial grading works quite differently.
	// Here we aren't worried about BL resolution.
	// Here all parameters should be computed
	// separately for the 4 edges of each block,
	// since the chord and lengths can in general
	// be different for each blade and at the hub
	// and casing.
	// For the upstream and downstream blocks, want
	// 2 regions: a close-to-the-blade region which
	// has a length equal to 1/2 of a chord, and,
	// if the block is long enough, a second region
	// which goes to the domain end where axially,
	// the cells are unifomr.
	// For the over-blade blocks, also want 2
	// regions: a near LE/TE region (1/4 of length)
	// and a region outsdie that. Would expect to
	// have non-uniform grading in BOTH regions,
	// but with continuity of cell sizes guaranteed
	// and less grading far from the LE/TE.

	// for the over-blade blocks:
	// fraction of cells to go in 1/4 of length near LE
fLEHP 0.5864563301634539;
fLEHN 0.5867338615257137;
fLECP 0.5886369055171333;
fLECN 0.5886815910800496;
	// grading ratio for first 1/4 of front over-blade block
gLEHP 14.81995742651088;
gLEHN 14.76124697755125;
gLECP 14.951507512088357;
gLECN 14.94199973039322;
	// grading ratio for rest of 1st over-blade block
gM1HP 1.7697678792300395;
gM1HN 1.776786879059456;
gM1CP 1.7884257036262583;
gM1CN 1.789559841661102;
	// fraction of cells to go in 1/4 of length near TE
fTEHP 0.6133067793732073;
fTEHN 0.6089515346373293;
fTECP 0.6160524738354062;
fTECN 0.6170120229268203;
	// grading ratio for last 1/4 of back over-blade block
gTEHP 0.04495630149633165;
gTEHN 0.042384322587544467;
gTECP 0.04495799138833346;
gTECN 0.045540462041143225;
	// grading ratio for rest of 2nd over-blade block
gM2HP 0.5661970771482369;
gM2HN 0.6003601657222813;
gM2CP 0.5553718521200152;
gM2CN 0.5483243473246516;

	// for offsets:
axgrading2HPoffset (0.009755220659322125 1 1) (0.01167598588096013 1 1) (0.013974942346599208 1 1) (0.016726554449611263 1 1) (0.017691626494801244 1 1) (0.011508491771352172 1 1) (0.010141643166876588 1 1) (0.009997141745524282 1 1) (0.012081258339038087 1 1) (0.014305398594279498 1 1) (0.016999406328991135 1 1) (0.02048363887573898 1 1) (0.024542949192679686 1 1) (0.029246504274785645 1 1) (0.0350793732135552 1 1) (0.04179866357578138 1 1) (0.04747700380677056 1 1) (0.05077714905193942 1 1) (0.052955045170904824 1 1) (0.0559815708824834 1 1) (0.0591079089812756 1 1) (0.06204538915788804 1 1) (0.06531086052000257 1 1) (0.06917932096583101 1 1) (0.07317954662205317 1 1) (0.07765366495922621 1 1) (0.09032374097172857 1 1);
axgrading2HNoffset (0.006659223830457548 1 1) (0.007968290322956963 1 1) (0.009534692373685693 1 1) (0.011409016862614002 1 1) (0.013651795010256276 1 1) (0.016335457230567813 1 1) (0.019546672267729923 1 1) (0.013146893834319343 1 1) (0.012167260641263042 1 1) (0.014511444018462133 1 1) (0.01711146924146735 1 1) (0.020608085412775673 1 1) (0.02470435724674841 1 1) (0.029518740925827763 1 1) (0.035486518391254024 1 1) (0.04291725417415665 1 1) (0.04845076315594865 1 1) (0.05228723421822046 1 1) (0.054506053925500564 1 1) (0.05735732403876159 1 1) (0.0605417373137912 1 1) (0.06453244797863111 1 1) (0.06712315247077727 1 1) (0.07104867154393879 1 1) (0.07586138907899553 1 1) (0.079710851671143 1 1) (0.07330320281974922 1 1);
axgrading2CPoffset (0.009488446850965226 1 1) (0.011363378205832171 1 1) (0.013608798813648418 1 1) (0.016297917907485138 1 1) (0.018120599672503394 1 1) (0.012382125886632997 1 1) (0.010157618400639182 1 1) (0.010088960826011836 1 1) (0.012044658082681597 1 1) (0.014609432154950447 1 1) (0.017143496401376412 1 1) (0.020545571577169408 1 1) (0.024676842740858546 1 1) (0.029720548058373902 1 1) (0.03546474395652943 1 1) (0.04190543330974689 1 1) (0.04890271074793168 1 1) (0.05055603357671107 1 1) (0.05381113057074238 1 1) (0.05691028637874734 1 1) (0.059489906209532206 1 1) (0.06300194567879136 1 1) (0.06628200806791129 1 1) (0.07008976986509685 1 1) (0.07459472053384208 1 1) (0.07903575546570318 1 1) (0.07970716005958556 1 1);
axgrading2CNoffset (0.00962669437675764 1 1) (0.011528454748926706 1 1) (0.01380590924533064 1 1) (0.016533276509416932 1 1) (0.018307184723909554 1 1) (0.012316147311612805 1 1) (0.01011650921833139 1 1) (0.010074026260992588 1 1) (0.012043229809167721 1 1) (0.014602189009415803 1 1) (0.017131557809485137 1 1) (0.020525266595936814 1 1) (0.02465185491802746 1 1) (0.02969195626315313 1 1) (0.03539634049309581 1 1) (0.041658631074567465 1 1) (0.04855498258576696 1 1) (0.05029401373515058 1 1) (0.05373537168649345 1 1) (0.05631864793580216 1 1) (0.05917779132716228 1 1) (0.06273260338168796 1 1) (0.06583289910452494 1 1) (0.0698745741396829 1 1) (0.07400661699546618 1 1) (0.07856483932049418 1 1) (0.08289843141964082 1 1);

axgrading3HPoffset (0.07537588945281345 1 1) (0.07897742135066915 1 1) (0.07445392361389672 1 1) (0.07040911412556944 1 1) (0.06654669273117603 1 1) (0.06296040886195031 1 1) (0.05923636867411697 1 1) (0.05622529524014014 1 1) (0.0529808440447177 1 1) (0.05011128002348153 1 1) (0.04729663675194018 1 1) (0.04067092214337442 1 1) (0.03393451710675477 1 1) (0.028282169092114007 1 1) (0.02369288546003967 1 1) (0.01999317572632875 1 1) (0.016807964629016348 1 1) (0.014114036151320009 1 1) (0.011866100682303538 1 1) (0.009976675218914655 1 1) (0.02164242542700967 1 1) (0.018346575998782755 1 1) (0.015286477134292431 1 1) (0.012736784411039537 1 1) (0.010612365145228675 1 1) (0.00884228627423822 1 1) (0.007367445944953088 1 1) (0.006138600138965611 1 1) (0.005114718444852229 1 1);
axgrading3HNoffset (0.0911899576498814 1 1) (0.07620251332191662 1 1) (0.07297673651401099 1 1) (0.06890700767663963 1 1) (0.06593283241042414 1 1) (0.062219332818509776 1 1) (0.059467882289903296 1 1) (0.056233401627337254 1 1) (0.05340100416045768 1 1) (0.050976565654795025 1 1) (0.04825508322421734 1 1) (0.04078676679190896 1 1) (0.03376416663262283 1 1) (0.028111864333777326 1 1) (0.02338998070597187 1 1) (0.019501372551895435 1 1) (0.016090429481103286 1 1) (0.01341743780941751 1 1) (0.011193174535608863 1 1) (0.009410124802095021 1 1) (0.007784229139958354 1 1) (0.006257021064545176 1 1) (0.009513985987826823 1 1) (0.013465209305195125 1 1) (0.011459388062487474 1 1) (0.009447542753071914 1 1) (0.006651979137571651 1 1) (0.010247311676997661 1 1) (0.02374569787985159 1 1);
axgrading3CPoffset (0.08769235564414642 1 1) (0.07913327290895926 1 1) (0.0744845211964569 1 1) (0.07044475994845104 1 1) (0.06622740876686689 1 1) (0.0624988232869208 1 1) (0.059023746951879674 1 1) (0.05552405333551941 1 1) (0.05239393301707229 1 1) (0.049434650497693355 1 1) (0.046545939658296454 1 1) (0.04045288245294365 1 1) (0.033677615697801144 1 1) (0.028119015218824317 1 1) (0.023514831536842085 1 1) (0.019657450809984933 1 1) (0.016463661037826927 1 1) (0.01380938217568839 1 1) (0.011608159875458823 1 1) (0.009741412815064576 1 1) (0.007882079035978262 1 1) (0.016356178530018917 1 1) (0.01597659356109349 1 1) (0.01414561516648638 1 1) (0.012957729656038697 1 1) (0.004103494033947608 1 1) (0.005 1 1) (0.005 1 1) (0.005 1 1);
axgrading3CNoffset (0.08448532774466283 1 1) (0.07931192989107352 1 1) (0.07467295355500156 1 1) (0.0703847885341155 1 1) (0.06624125795460506 1 1) (0.06241398139769028 1 1) (0.05874655130676826 1 1) (0.05532365372267389 1 1) (0.0521001101180153 1 1) (0.04906419752994218 1 1) (0.04620931226684177 1 1) (0.04023530081313331 1 1) (0.03357907714774511 1 1) (0.02805486755370412 1 1) (0.023463470301716804 1 1) (0.019667631539447727 1 1) (0.016507108946688942 1 1) (0.013846024750705621 1 1) (0.011642417370507308 1 1) (0.009778880545156965 1 1) (0.007887905971297293 1 1) (0.016978140523573382 1 1) (0.0162123674576099 1 1) (0.013732496186330767 1 1) (0.012276001329947328 1 1) (0.010864602789604327 1 1) (0.009864775402002923 1 1) (0.009015349879996637 1 1) (0.007439517469441381 1 1);

	// for upstream and downstream blocks:
	// blade chord at hub on positive theta side (input units)
cHP 35.69973916329147;
	// blade chord at hub on negative theta side (input units)
cHN 35.69973916329147;
	// blade chord at casing on positive theta side (input units)
cCP 34.99640143975984;
	// blade chord at casing on negative theta side (input units)
cCN 34.99640143975984;

	// for upstream block:
	// length of upstream block at hub (input units) (positive theta)
L1HP 71.8895877574826;
	// grading ratio for cells (hub) in part of block longer than 0.5 chord from LE (positive theta)
g1HPfar 0.25858332309051674;
	// fraction of cells (hub) to go in part of block that occupies first 0.5 chord from LE (positive theta)
	// note: will be 1.0 if L1-0.5*C <= 0
f1HPclo 0.6779137939246489;
	// grading ratio for cells (hub) in part of block that occupies first 0.5 chord from LE (positive theta)
g1HPclo 0.07922606854605102;

	// length of upstream block at hub (input units) (negative theta)
L1HN 71.88958775749099;
	// grading ratio for cells (hub) in part of block longer than 0.5 chord from LE (negative theta)
g1HNfar 0.2585833230904558;
	// fraction of cells (hub) to go in part of block that occupies first 0.5 chord from LE (negative theta)
	// note: will be 1.0 if L1-0.5*C <= 0
f1HNclo 0.6779137939246489;
	// grading ratio for cells (hub) in part of block that occupies first 0.5 chord from LE (negative theta)
g1HNclo 0.07922606854605102;

	// length of upstream block at casing (input units) (positive theta)
L1CP 72.08230578390939;
	// grading ratio for cells (casing) in part of block longer than 0.5 chord from LE (positive theta)
g1CPfar 0.270455122568587;
	// fraction of cells (casing) to go in part of block that occupies first 0.5 chord from LE (positive theta)
	// note: will be 1.0 if L1-0.5*C <= 0
f1CPclo 0.6643286831044449;
	// grading ratio for cells (casing) in part of block that occupies first 0.5 chord from LE (positive theta)
g1CPclo 0.07922606854605102;

	// length of upstream block at casing (input units) (negative theta)
L1CN 72.08230578396903;
	// grading ratio for cells (casing) in part of block longer than 0.5 chord from LE (negative theta)
g1CNfar 0.27045512256813614;
	// fraction of cells (casing) to go in part of block that occupies first 0.5 chord from LE (negative theta)
	// note: will be 1.0 if L1-0.5*C <= 0
f1CNclo 0.6643286831044449;
	// grading ratio for cells (casing) in part of block that occupies first 0.5 chord from LE (negative theta)
g1CNclo 0.07922606854605102;

	// for downstream block:
	// fraction of cells (hub) to go in part of block that occupies first 0.5 chord from TE (positive theta)
	// note: will be 1.0 if L1-0.5*C <= 0
f4HPclo 0.6778316015499715;
	// grading ratio for cells (hub) in part of block that occupies first 0.5 chord from TE (positive theta)
g4HPclo 13.577601192196095;
	// length of downstream block at hub (input units) (positive theta)
L4HP 73.76126436436864;
	// grading ratio for cells (hub) in part of block longer than 0.5 chord from TE (positive theta)
g4HPfar 3.9440052719878205;

	// fraction of cells (hub) to go in part of block that occupies first 0.5 chord from TE (negative theta)
	// note: will be 1.0 if L1-0.5*C <= 0
f4HNclo 0.6778316015499715;
	// grading ratio for cells (hub) in part of block that occupies first 0.5 chord from TE (negative theta)
g4HNclo 13.577601192196095;
	// length of downstream block at hub (input units) (negative theta)
L4HN 73.76085756631251;
	// grading ratio for cells (hub) in part of block longer than 0.5 chord from TE (negative theta)
g4HNfar 3.9439619773277026;

	// fraction of cells (casing) to go in part of block that occupies first 0.5 chord from TE (positive theta)
	// note: will be 1.0 if L1-0.5*C <= 0
f4CPclo 0.6642415214515406;
	// grading ratio for cells (casing) in part of block that occupies first 0.5 chord from TE (positive theta)
g4CPclo 13.577601192196095;
	// length of downstream block at casing (input units) (positive theta)
L4CP 70.90857955565313;
	// grading ratio for cells (casing) in part of block longer than 0.5 chord from TE (positive theta)
g4CPfar 3.4619549078806946;

	// fraction of cells (casing) to go in part of block that occupies first 0.5 chord from TE (negative theta)
	// note: will be 1.0 if L1-0.5*C <= 0
f4CNclo 0.6642415214515406;
	// grading ratio for cells (casing) in part of block that occupies first 0.5 chord from TE (negative theta)
g4CNclo 13.577601192196095;
	// length of downstream block at casing (input units) (negative theta)
L4CN 70.90578025403518;
	// grading ratio for cells (casing) in part of block longer than 0.5 chord from TE (negative theta)
g4CNfar 3.461675356427732;

// vertices for unprojected background blocks
	// pos
hubIp (58.159242192276146 14.274761355731084 -127.6992490256896) ;
casIp (150.685395583093 44.41946363037325 -121.9796113412896) ;
hubKp (55.350377000697655 13.601353689486867 -56.954650616797416) ;
casKp (148.35855996165253 43.52758462404548 -51.03385206865632) ;
hubLp (55.220620949126975 13.48364462166181 -55.87410393399361) ;
casLp (148.292438406859 43.521767643432355 -49.942629831840186) ;
hubMp (53.511050551158384 9.947598259311665 -38.449341637069644) ;
casMp (147.8823184139554 41.89169404441013 -32.46527867230791) ;
hubPp (53.699611793871995 8.875040112810781 -38.451216563992105) ;
casPp (148.17513392149112 40.84018770017291 -32.43971859375528) ;
hubTp (51.79172729723895 6.53924398273863 -21.02457934014568) ;
casTp (146.71049389235046 44.16546871646709 -14.987927512775656) ;
hubUp (51.702335414157744 6.237873845537264 -19.961420635836333) ;
casUp (146.6720795417322 44.209170804599395 -13.893305825475556) ;
hubOp (65.52551688473865 6.136846256795968 51.44572644275219) ;
casOp (143.339699416564 38.161632396179954 55.58556856501264) ;
	// neg
hubIn (59.72387011997219 -4.396089402594152 -127.6992490256896) ;
casIn (157.0366965232596 -4.318927679985434 -121.9796113412896) ;
hubKn (56.84438616246274 -4.1685510814541935 -56.954650616797416) ;
casKn (154.54813857261863 -4.448123293858097 -51.03385206865633) ;
hubLn (56.68460672173774 -4.240402232377906 -55.87410393399361) ;
casLn (154.48345569119925 -4.433222887049666 -49.942629831840186) ;
hubMn (54.297930259809355 -3.7579265184631034 -38.449341637069644) ;
casMn (153.6803426900873 -2.538976182302576 -32.46527867230792) ;
hubPn (54.35791871622457 -2.6675050119423678 -38.41592655108169) ;
casPn (153.69513911903826 -1.4457561281550741 -32.481419943961164) ;
hubTn (51.27759725725103 -9.78533330145225 -21.02457934014568) ;
casTn (153.17785162312364 -3.3321790478524522 -14.987927512775656) ;
hubUn (51.099452030350434 -10.044329723223102 -19.961420635836337) ;
casUn (153.15482209257146 -3.2787452049895864 -13.89330582547556) ;
hubOn (64.218782045921 -14.394522483577347 51.44572644275219) ;
casOn (148.11892141160712 -7.960196972075632 55.58556856501264) ;


// ------------ END INPUT BLOCK ----------------------- //




// cylindrical system definition: theta (q) = 0 along positive x-axis
// positive angles moving towards positive y-direction
// x = r * cos(q)
// y = r * sin(q)
// r = sqrt(x^2 + y^2)
// q = atan2(y,x)
// This definition means that when looking downstream (down the +ive z-axis),
// positive theta is CLOCKWISE

// Derived quantities: grading parameters

// Tuples are ( fraction of edge length  |  fraction of cells  |  grading )
// Use multiple tuples to split up edges into multiple segments

// Overall strategy:
// Each edge to be split into 2-3 parts.
// Radially: all blocks split the same way. 3 parts: hub BL, middle part, casing BL
// Tangentially: all blocks split the same way. 2 parts: lowTheta half, highTheta half
// 		(Note: for tangential, move cell distribution to uniform at domain inlet/outlet, but should
//		constrain this so that the variation isn't too large in cases where the inlet/outlet are
//		close to the LE/TE.)
// Axially: all blocks split into 2 parts: near LE/TE region and far from LE/TE region

// Since we are using 4 blocks only, the splits of the lengths are based on fractions. However, we
// can take advantage of the fact that blockMesh automatically normalizes the values given.
// So we need not actually compute the fractions directly. Instead, we can specify the length
// of the BL regions (delHub, delCas) and then look at the span at each edge to compute the
// middle parts (for radial grading). The tangential and axial grading are not based on the
// BLs, so instead do a split based on a distance from LE/TE that is some given fraction
// of the chord c (distance bewteen LE and TE points for each blade on hub and casing)
// then estimate block length (easy since can treat up-/down-stream extensions
// as straight lines and LE to TE as circular arc segment) to get other section length.

// Radial grading
	// Use known BL sizes + spans to determine grading parameters directly
	// (not a function of circumferential position,
	// so 8 edge sets needed, each used 2 times)
	// 4 segments to allow interior grading using nGrad parameter
radgradingI ($delHub $nBLcellsHub $gBLhub) (#eval{0.5*($spanI-$delHub-$delCas)} #eval{0.5*$nrad} $gRad) (#eval{0.5*($spanI-$delHub-$delCas)} #eval{0.5*$nrad} #eval{1.0/$gRad}) ($delCas $nBLcellsCas #eval{1/$gBLcas});
radgradingK ($delHub $nBLcellsHub $gBLhub) (#eval{0.5*($spanK-$delHub-$delCas)} #eval{0.5*$nrad} $gRad) (#eval{0.5*($spanK-$delHub-$delCas)} #eval{0.5*$nrad} #eval{1.0/$gRad}) ($delCas $nBLcellsCas #eval{1/$gBLcas});
radgradingL ($delHub $nBLcellsHub $gBLhub) (#eval{0.5*($spanL-$delHub-$delCas)} #eval{0.5*$nrad} $gRad) (#eval{0.5*($spanL-$delHub-$delCas)} #eval{0.5*$nrad} #eval{1.0/$gRad}) ($delCas $nBLcellsCas #eval{1/$gBLcas});
radgradingM ($delHub $nBLcellsHub $gBLhub) (#eval{0.5*($spanM-$delHub-$delCas)} #eval{0.5*$nrad} $gRad) (#eval{0.5*($spanM-$delHub-$delCas)} #eval{0.5*$nrad} #eval{1.0/$gRad}) ($delCas $nBLcellsCas #eval{1/$gBLcas});
radgradingP ($delHub $nBLcellsHub $gBLhub) (#eval{0.5*($spanP-$delHub-$delCas)} #eval{0.5*$nrad} $gRad) (#eval{0.5*($spanP-$delHub-$delCas)} #eval{0.5*$nrad} #eval{1.0/$gRad}) ($delCas $nBLcellsCas #eval{1/$gBLcas});
radgradingT ($delHub $nBLcellsHub $gBLhub) (#eval{0.5*($spanT-$delHub-$delCas)} #eval{0.5*$nrad} $gRad) (#eval{0.5*($spanT-$delHub-$delCas)} #eval{0.5*$nrad} #eval{1.0/$gRad}) ($delCas $nBLcellsCas #eval{1/$gBLcas});
radgradingU ($delHub $nBLcellsHub $gBLhub) (#eval{0.5*($spanU-$delHub-$delCas)} #eval{0.5*$nrad} $gRad) (#eval{0.5*($spanU-$delHub-$delCas)} #eval{0.5*$nrad} #eval{1.0/$gRad}) ($delCas $nBLcellsCas #eval{1/$gBLcas});
radgradingO ($delHub $nBLcellsHub $gBLhub) (#eval{0.5*($spanO-$delHub-$delCas)} #eval{0.5*$nrad} $gRad) (#eval{0.5*($spanO-$delHub-$delCas)} #eval{0.5*$nrad} #eval{1.0/$gRad}) ($delCas $nBLcellsCas #eval{1/$gBLcas});

// Tangential grading
	// Simpler, just 2 segments to allow symmetric variation in cell sizes
	// (7 edges needed: I(hub/cas)/L/M/T/O(hub/cas))
	// Move toward uniform spacing at I and O, but some constraint based
	// on length imposed.
tangradingIhub (0.5 0.5 $gTanIhub) (0.5 0.5 #eval{1/$gTanIhub});
tangradingIcas (0.5 0.5 $gTanIcas) (0.5 0.5 #eval{1/$gTanIcas});
tangradingL (0.5 0.5 $gTan) (0.5 0.5 #eval{1/$gTan});
tangradingM (0.5 0.5 $gTan) (0.5 0.5 #eval{1/$gTan});
tangradingT (0.5 0.5 $gTan) (0.5 0.5 #eval{1/$gTan});
tangradingOhub (0.5 0.5 $gTanOhub) (0.5 0.5 #eval{1/$gTanOhub});
tangradingOcas (0.5 0.5 $gTanOcas) (0.5 0.5 #eval{1/$gTanOcas});

// Axial grading
	// 2 segments per block edge, but each one must be computed individually.
	// So 16 edges needed: hub (H) and casing (C), positive (P) and
	// negative (N) theta, for each of the 4 blocks.
	//
	// For blocks 2 and 3, the values are used for both "axial" edges of the
	// blade BL blocks (the ones along the blade surface and the ones on the offset)
axgrading1HP (#eval{max($L1HP-0.5*$cHP,0)} #eval{1-$f1HPclo} $g1HPfar) (#eval{0.5*$cHP} $f1HPclo $g1HPclo);
axgrading1HN (#eval{max($L1HN-0.5*$cHN,0)} #eval{1-$f1HNclo} $g1HNfar) (#eval{0.5*$cHN} $f1HNclo $g1HNclo);
axgrading1CP (#eval{max($L1CP-0.5*$cCP,0)} #eval{1-$f1CPclo} $g1CPfar) (#eval{0.5*$cCP} $f1CPclo $g1CPclo);
axgrading1CN (#eval{max($L1CN-0.5*$cCN,0)} #eval{1-$f1CNclo} $g1CNfar) (#eval{0.5*$cCN} $f1CNclo $g1CNclo);

axgrading2HP (0.25 $fLEHP $gLEHP) (0.75 #eval{1-$fLEHP} $gM1HP);
axgrading2HN (0.25 $fLEHN $gLEHN) (0.75 #eval{1-$fLEHN} $gM1HN);
axgrading2CP (0.25 $fLECP $gLECP) (0.75 #eval{1-$fLECP} $gM1CP);
axgrading2CN (0.25 $fLECN $gLECN) (0.75 #eval{1-$fLECN} $gM1CN);

axgrading3HP (0.75 #eval{1-$fTEHP} $gM2HP) (0.25 $fTEHP $gTEHP);
axgrading3HN (0.75 #eval{1-$fTEHN} $gM2HN) (0.25 $fTEHN $gTEHN);
axgrading3CP (0.75 #eval{1-$fTECP} $gM2CP) (0.25 $fTECP $gTECP);
axgrading3CN (0.75 #eval{1-$fTECN} $gM2CN) (0.25 $fTECN $gTECN);

axgrading4HP (#eval{0.5*$cHP} $f4HPclo $g4HPclo) (#eval{max($L4HP-0.5*$cHP,0)} #eval{1-$f4HPclo} $g4HPfar); 
axgrading4HN (#eval{0.5*$cHN} $f4HNclo $g4HNclo) (#eval{max($L4HN-0.5*$cHN,0)} #eval{1-$f4HNclo} $g4HNfar); 
axgrading4CP (#eval{0.5*$cCP} $f4CPclo $g4CPclo) (#eval{max($L4CP-0.5*$cCP,0)} #eval{1-$f4CPclo} $g4CPfar); 
axgrading4CN (#eval{0.5*$cCN} $f4CNclo $g4CNclo) (#eval{max($L4CN-0.5*$cCN,0)} #eval{1-$f4CNclo} $g4CNfar); 

geometry
{
    casing
    {
        type   triSurfaceMesh;
        file   "casing.stl";
    }
    casingpUp
    {
        type   triSurfaceMesh;
        file   "highUpCas.stl";
    }
    casingpDn
    {
        type   triSurfaceMesh;
        file   "highDwCas.stl";
    }
    casingnUp
    {
        type   triSurfaceMesh;
        file   "lowUpCas.stl";
    }
    casingnDn
    {
        type   triSurfaceMesh;
        file   "lowDwCas.stl";
    }
    hub
    {
        type   triSurfaceMesh;
        file   "hub.stl";
    }
    hubpUp
    {
        type   triSurfaceMesh;
        file   "highUpHub.stl";
    }
    hubpDn
    {
        type   triSurfaceMesh;
        file   "highDwHub.stl";
    }
    hubnUp
    {
        type   triSurfaceMesh;
        file   "lowUpHub.stl";
    }
    hubnDn
    {
        type   triSurfaceMesh;
        file   "lowDwHub.stl";
    }
    inlet
    {
        type   triSurfaceMesh;
        file   "inlet.stl";
    }
    outlet
    {
        type   triSurfaceMesh;
        file   "outlet.stl";
    }
    nPerUp
    {
       	type   triSurfaceMesh;
       	file   "inletLow.stl";
    }
    pPerUp
    {
       	type   triSurfaceMesh;
       	file   "inletHigh.stl";
    }
    nPerDn
    {
       	type   triSurfaceMesh;
       	file   "outletLow.stl";
    }
    pPerDn
    {
       	type   triSurfaceMesh;
       	file   "outletHigh.stl";
    }
    pOBUp
    {
       	type   triSurfaceMesh;
       	file   "highOBUp.stl";
    }
    pOBDn
    {
       	type   triSurfaceMesh;
       	file   "highOBDw.stl";
    }
    nOBUp
    {
       	type   triSurfaceMesh;
       	file   "lowOBUp.stl";
    }
    nOBDn
    {
       	type   triSurfaceMesh;
       	file   "lowOBDw.stl";
    }
    nBladeUp
    {
       	type   triSurfaceMesh;
       	file   "blade1LowTheta.stl";
    }
    pBladeUp
    {
       	type   triSurfaceMesh;
       	file   "blade1HighTheta.stl";
    }
    nBladeDn
    {
       	type   triSurfaceMesh;
       	file   "blade2LowTheta.stl";
    }
    pBladeDn
    {
       	type   triSurfaceMesh;
       	file   "blade2HighTheta.stl";
    }
    nOffsetUp
    {
       	type   triSurfaceMesh;
       	file   "offset1LowTheta.stl";
    }
    pOffsetUp
    {
       	type   triSurfaceMesh;
       	file   "offset1HighTheta.stl";
    }
    nOffsetDn
    {
       	type   triSurfaceMesh;
       	file   "offset2LowTheta.stl";
    }
    pOffsetDn
    {
       	type   triSurfaceMesh;
       	file   "offset2HighTheta.stl";
    }
    LE
    {
    	type	triSurfaceMesh;
    	file 	"LE.stl";
    }
    TE
    {
    	type	triSurfaceMesh;
    	file 	"TE.stl";
    }
    midChord
    {
    	type	triSurfaceMesh;
    	file 	"midChord.stl";
    }
    midChordLow
    {
    	type	triSurfaceMesh;
    	file 	"midChordLow.stl";
    }
    midChordHigh
    {
    	type	triSurfaceMesh;
    	file 	"midChordHigh.stl";
    }
}

vertices
(

	// x1 = q dir
	// x2 = axial (z) dir
	// x3 = radial dir

	// vertices for upstream block
	name vIPH $hubIp // inlet plane, max Q, hub
	name vKPH $hubKp // near-LE axial loc, max Q, hub
	name vIPC $casIp // inlet plane, max Q, cas
	name vKPC $casKp // near-LE axial loc, max Q, cas
	name vINH $hubIn // inlet plane, min Q, hub
	name vKNH $hubKn // (hub nPerUp LE) // near-LE axial loc, min Q, hub
	name vINC $casIn // inlet plane, min Q, cas
	name vKNC $casKn // near-LE axial loc, min Q, cas

	// vertices for first outer around-blade block
	// vKPH
	name vPPH $hubPp // mid-blade point axial loc, max Q, hub
	// vKPC
	name vPPC $casPp // mid-blade point axial loc, max Q, cas
	// vKNH
	name vPNH $hubPn // mid-blade point axial loc, min Q, hub
	// vKNC
	name vPNC $casPn // mid-blade point axial loc, min Q, cas

	// vertices for first blade BL block on max Q side
		// "axially": from K to P on one side, L to M on the other
		// "radially": hub to casing like everything else
		// "tangentially": from K to L on one side, from P to M on the other
	// vKPH
	// vPPH
	name vLPH $hubLp // LE, max Q, hub
	name vMPH $hubMp // mid-chord, max Q, hub
	// vKPC
	// vPPC
	name vLPC $casLp // LE, max Q, cas
	name vMPC $casMp // mid-chord, max Q, cas

	// vertices for first blade BL block on min Q side
		// "axially": from K to P on one side, L to M on the other
		// "radially": hub to casing like everything else
		// "tangentially": from K to L on one side, from P to M on the other
	// vKNH
	// vPNH
	name vLNH $hubLn // LE, min Q, hub
	name vMNH $hubMn // mid-chord, min Q, hub
	// vKNC
	// vPNC
	name vLNC $casLn // LE, min Q, cas
	name vMNC $casMn // mid-chord, min Q, cas

	// vertices for second outer around-blade block
	// vPPH
	name vUPH $hubUp // near-TE axial loc, max Q, hub
	// vPPC
	name vUPC $casUp // near-TE axial loc, max Q, cas
	// vPNH
	name vUNH $hubUn // near-TE axial loc, min Q, hub
	// vPNC
	name vUNC $casUn // near-TE axial loc, min Q, cas

	// vertices for second blade BL block on max Q side
		// "axially": from P to U on one side, M to T on the other
		// "radially": hub to casing like everything else
		// "tangentially": from P to M on one side, from U to T on the other
	// vPPH
	// vUPH
	// vMPH
	name vTPH $hubTp // TE, max Q, hub
	// vPPC
	// vUPC
	// vMPC